pydss-projects/SFO_Urban_Base_p2uhs2_p2udt3761/DSSfiles/Loads.dss
New Load.load_p2ulv189 conn=wye bus1=p2ulv189.1.2.3 kV=0.48 Vminpu=0.8 Vmaxpu=1.2 model=1 kW=180.4767615363701 kvar=77.54934736696892 Phases=3 yearly=res_kw_13430_pu

New Load.load_p2ulv196 conn=wye bus1=p2ulv196.1.2.3 kV=0.48 Vminpu=0.8 Vmaxpu=1.2 model=1 kW=63.61748432294326 kvar=20.039511376983327 Phases=3 yearly=res_kw_10459_pu

New Load.load_p2ulv197 conn=wye bus1=p2ulv197.1.2.3 kV=0.48 Vminpu=0.8 Vmaxpu=1.2 model=1 kW=32.61483662407106 kvar=12.142816482798644 Phases=3 yearly=res_kw_5953_pu

New Load.load_p2ulv288 conn=wye bus1=p2ulv288.1.2.3 kV=0.48 Vminpu=0.8 Vmaxpu=1.2 model=1 kW=24.695474593600295 kvar=6.167522539717816 Phases=3 yearly=com_kw_2247_pu

New Load.load_p2ulv289 conn=wye bus1=p2ulv289.1.2.3 kV=0.48 Vminpu=0.8 Vmaxpu=1.2 model=1 kW=27.367935452253334 kvar=3.586392830417183 Phases=3 yearly=com_kw_29503_pu

New Load.load_p2ulv290 conn=wye bus1=p2ulv290.1.2.3 kV=0.48 Vminpu=0.8 Vmaxpu=1.2 model=1 kW=157.95548688182458 kvar=9.836955465288439 Phases=3 yearly=res_kw_4620_pu

New Load.load_p2ulv291 conn=wye bus1=p2ulv291.1.2.3 kV=0.48 Vminpu=0.8 Vmaxpu=1.2 model=1 kW=120.05071883109555 kvar=16.403344605386554 Phases=3 yearly=res_kw_9622_pu

New Load.load_p2ulv292_1 conn=wye bus1=p2ulv292.1 kV=0.12 Vminpu=0.8 Vmaxpu=1.2 model=1 kW=3.528223782319545 kvar=0.5819289308086721 Phases=1 yearly=com_kw_29376_pu

New Load.load_p2ulv292_2 conn=wye bus1=p2ulv292.2 kV=0.12 Vminpu=0.8 Vmaxpu=1.2 model=1 kW=3.528223782319545 kvar=0.5819289308086721 Phases=1 yearly=com_kw_29376_pu

New Load.load_p2ulv293_1 conn=wye bus1=p2ulv293.1 kV=0.12 Vminpu=0.8 Vmaxpu=1.2 model=1 kW=6.171921265639173 kvar=0.29621618517422543 Phases=1 yearly=com_kw_33396_pu

New Load.load_p2ulv293_2 conn=wye bus1=p2ulv293.2 kV=0.12 Vminpu=0.8 Vmaxpu=1.2 model=1 kW=6.171921265639173 kvar=0.29621618517422543 Phases=1 yearly=com_kw_33396_pu

New Load.load_p2ulv294 conn=wye bus1=p2ulv294.1.2.3 kV=0.48 Vminpu=0.8 Vmaxpu=1.2 model=1 kW=178.31234028303246 kvar=78.04701224784061 Phases=3 yearly=res_kw_2385_pu

New Load.load_p2ulv295_1 conn=wye bus1=p2ulv295.1 kV=0.12 Vminpu=0.8 Vmaxpu=1.2 model=1 kW=6.463250925368341 kvar=1.0667728413547097 Phases=1 yearly=com_kw_31621_pu

New Load.load_p2ulv295_2 conn=wye bus1=p2ulv295.2 kV=0.12 Vminpu=0.8 Vmaxpu=1.2 model=1 kW=6.463250925368341 kvar=1.0667728413547097 Phases=1 yearly=com_kw_31621_pu

New Load.load_p2ulv296_1 conn=wye bus1=p2ulv296.1 kV=0.12 Vminpu=0.8 Vmaxpu=1.2 model=1 kW=5.12279426874869 kvar=1.4312831856323216 Phases=1 yearly=com_kw_39311_pu

New Load.load_p2ulv296_2 conn=wye bus1=p2ulv296.2 kV=0.12 Vminpu=0.8 Vmaxpu=1.2 model=1 kW=5.12279426874869 kvar=1.4312831856323216 Phases=1 yearly=com_kw_39311_pu

New Load.load_p2ulv297 conn=wye bus1=p2ulv297.1.2.3 kV=0.48 Vminpu=0.8 Vmaxpu=1.2 model=1 kW=95.63536080287199 kvar=37.999873821111926 Phases=3 yearly=res_kw_2311_pu

New Load.load_p2ulv298 conn=wye bus1=p2ulv298.1.2.3 kV=0.48 Vminpu=0.8 Vmaxpu=1.2 model=1 kW=239.80881777848887 kvar=54.577320043325486 Phases=3 yearly=res_kw_13685_pu

New Load.load_p2ulv299 conn=wye bus1=p2ulv299.1.2.3 kV=0.48 Vminpu=0.8 Vmaxpu=1.2 model=1 kW=269.09633900522675 kvar=54.81527973944927 Phases=3 yearly=res_kw_10557_pu

New Load.load_p2ulv300 conn=wye bus1=p2ulv300.1.2.3 kV=0.48 Vminpu=0.8 Vmaxpu=1.2 model=1 kW=154.8021666279031 kvar=13.050530297846214 Phases=3 yearly=res_kw_4185_pu

New Load.load_p2ulv301 conn=wye bus1=p2ulv301.1.2.3 kV=0.48 Vminpu=0.8 Vmaxpu=1.2 model=1 kW=35.54976180667632 kvar=17.220325874522736 Phases=3 yearly=res_kw_418_pu

New Load.load_p2ulv302_1 conn=wye bus1=p2ulv302.1 kV=0.12 Vminpu=0.8 Vmaxpu=1.2 model=1 kW=10.101462299068846 kvar=1.4664889668627885 Phases=1 yearly=res_kw_3563_pu

New Load.load_p2ulv302_2 conn=wye bus1=p2ulv302.2 kV=0.12 Vminpu=0.8 Vmaxpu=1.2 model=1 kW=10.101462299068846 kvar=1.4664889668627885 Phases=1 yearly=res_kw_3563_pu

New Load.load_p2ulv303 conn=wye bus1=p2ulv303.1.2.3 kV=0.48 Vminpu=0.8 Vmaxpu=1.2 model=1 kW=59.732679916697066 kvar=23.401770117680076 Phases=3 yearly=res_kw_9773_pu

New Load.load_p2ulv304_1 conn=wye bus1=p2ulv304.1 kV=0.12 Vminpu=0.8 Vmaxpu=1.2 model=1 kW=20.61042131626466 kvar=3.2526569771937885 Phases=1 yearly=res_kw_2857_pu

New Load.load_p2ulv304_2 conn=wye bus1=p2ulv304.2 kV=0.12 Vminpu=0.8 Vmaxpu=1.2 model=1 kW=20.61042131626466 kvar=3.2526569771937885 Phases=1 yearly=res_kw_2857_pu

New Load.load_p2ulv305 conn=wye bus1=p2ulv305.1.2.3 kV=0.48 Vminpu=0.8 Vmaxpu=1.2 model=1 kW=356.72112452293396 kvar=92.94388418074209 Phases=3 yearly=com_kw_2543_pu

New Load.load_p2ulv306 conn=wye bus1=p2ulv305.1.2.3 kV=0.48 Vminpu=0.8 Vmaxpu=1.2 model=1 kW=126.44139055575779 kvar=52.27172448373033 Phases=3 yearly=res_kw_243_pu

New Load.load_p2ulv307 conn=wye bus1=p2ulv307.1.2.3 kV=0.48 Vminpu=0.8 Vmaxpu=1.2 model=1 kW=22.34932374375116 kvar=6.355804000700292 Phases=3 yearly=com_kw_41293_pu

New Load.load_p2ulv308_1 conn=wye bus1=p2ulv308.1 kV=0.12 Vminpu=0.8 Vmaxpu=1.2 model=1 kW=2.606959916668558 kvar=0.5550307077474157 Phases=1 yearly=com_kw_33605_pu

New Load.load_p2ulv308_2 conn=wye bus1=p2ulv308.2 kV=0.12 Vminpu=0.8 Vmaxpu=1.2 model=1 kW=2.606959916668558 kvar=0.5550307077474157 Phases=1 yearly=com_kw_33605_pu

New Load.load_p2ulv309_1 conn=wye bus1=p2ulv309.1 kV=0.12 Vminpu=0.8 Vmaxpu=1.2 model=1 kW=5.455272765143665 kvar=0.8580253388886743 Phases=1 yearly=com_kw_31683_pu

New Load.load_p2ulv309_2 conn=wye bus1=p2ulv309.2 kV=0.12 Vminpu=0.8 Vmaxpu=1.2 model=1 kW=5.455272765143665 kvar=0.8580253388886743 Phases=1 yearly=com_kw_31683_pu

New Load.load_p2ulv310_1 conn=wye bus1=p2ulv310.1 kV=0.12 Vminpu=0.8 Vmaxpu=1.2 model=1 kW=12.068853305300843 kvar=0.4255339149672576 Phases=1 yearly=res_kw_6920_pu

New Load.load_p2ulv310_2 conn=wye bus1=p2ulv310.2 kV=0.12 Vminpu=0.8 Vmaxpu=1.2 model=1 kW=12.068853305300843 kvar=0.4255339149672576 Phases=1 yearly=res_kw_6920_pu

New Load.load_p2ulv311_1 conn=wye bus1=p2ulv311.1 kV=0.12 Vminpu=0.8 Vmaxpu=1.2 model=1 kW=5.982582446449887 kvar=1.8115318810615832 Phases=1 yearly=res_kw_180_pu

New Load.load_p2ulv311_2 conn=wye bus1=p2ulv311.2 kV=0.12 Vminpu=0.8 Vmaxpu=1.2 model=1 kW=5.982582446449887 kvar=1.8115318810615832 Phases=1 yearly=res_kw_180_pu

New Load.load_p2ulv312_1 conn=wye bus1=p2ulv312.1 kV=0.12 Vminpu=0.8 Vmaxpu=1.2 model=1 kW=1.9928414057482384 kvar=0.7539419175191571 Phases=1 yearly=res_kw_11801_pu

New Load.load_p2ulv312_2 conn=wye bus1=p2ulv312.2 kV=0.12 Vminpu=0.8 Vmaxpu=1.2 model=1 kW=1.9928414057482384 kvar=0.7539419175191571 Phases=1 yearly=res_kw_11801_pu

New Load.load_p2ulv313_1 conn=wye bus1=p2ulv312.1 kV=0.12 Vminpu=0.8 Vmaxpu=1.2 model=1 kW=3.3507878061932015 kvar=0.7494732301678915 Phases=1 yearly=res_kw_5264_pu

New Load.load_p2ulv313_2 conn=wye bus1=p2ulv312.2 kV=0.12 Vminpu=0.8 Vmaxpu=1.2 model=1 kW=3.3507878061932015 kvar=0.7494732301678915 Phases=1 yearly=res_kw_5264_pu

New Load.load_p2ulv314_1 conn=wye bus1=p2ulv314.1 kV=0.12 Vminpu=0.8 Vmaxpu=1.2 model=1 kW=10.807709557695098 kvar=2.865188166423234 Phases=1 yearly=res_kw_5622_pu

New Load.load_p2ulv314_2 conn=wye bus1=p2ulv314.2 kV=0.12 Vminpu=0.8 Vmaxpu=1.2 model=1 kW=10.807709557695098 kvar=2.865188166423234 Phases=1 yearly=res_kw_5622_pu

New Load.load_p2ulv316 conn=wye bus1=p2ulv316.1.2.3 kV=0.48 Vminpu=0.8 Vmaxpu=1.2 model=1 kW=120.05071883109555 kvar=16.403344605386554 Phases=3 yearly=res_kw_9622_pu

New Load.load_p2ulv394_1 conn=wye bus1=p2ulv394.1 kV=0.12 Vminpu=0.8 Vmaxpu=1.2 model=1 kW=6.135791139899533 kvar=0.7108118413531727 Phases=1 yearly=com_kw_28965_pu

New Load.load_p2ulv394_2 conn=wye bus1=p2ulv394.2 kV=0.12 Vminpu=0.8 Vmaxpu=1.2 model=1 kW=6.135791139899533 kvar=0.7108118413531727 Phases=1 yearly=com_kw_28965_pu

New Load.load_p2ulv395_1 conn=wye bus1=p2ulv395.1 kV=0.12 Vminpu=0.8 Vmaxpu=1.2 model=1 kW=1.839175601618853 kvar=0.4557221316666175 Phases=1 yearly=com_kw_17204_pu

New Load.load_p2ulv395_2 conn=wye bus1=p2ulv395.2 kV=0.12 Vminpu=0.8 Vmaxpu=1.2 model=1 kW=1.839175601618853 kvar=0.4557221316666175 Phases=1 yearly=com_kw_17204_pu

New Load.load_p2ulv397_1 conn=wye bus1=p2ulv397.1 kV=0.12 Vminpu=0.8 Vmaxpu=1.2 model=1 kW=8.397235126742553 kvar=2.562549491717184 Phases=1 yearly=com_kw_1120_pu

New Load.load_p2ulv397_2 conn=wye bus1=p2ulv397.2 kV=0.12 Vminpu=0.8 Vmaxpu=1.2 model=1 kW=8.397235126742553 kvar=2.562549491717184 Phases=1 yearly=com_kw_1120_pu

New Load.load_p2ulv1268_1 conn=wye bus1=p2ulv1268.1 kV=0.12 Vminpu=0.8 Vmaxpu=1.2 model=1 kW=20.862543421780348 kvar=3.7917373935141216 Phases=1 yearly=res_kw_3160_pu

New Load.load_p2ulv1268_2 conn=wye bus1=p2ulv1268.2 kV=0.12 Vminpu=0.8 Vmaxpu=1.2 model=1 kW=20.862543421780348 kvar=3.7917373935141216 Phases=1 yearly=res_kw_3160_pu

New Load.load_p2ulv1271 conn=wye bus1=p2ulv1271.1.2.3 kV=0.48 Vminpu=0.8 Vmaxpu=1.2 model=1 kW=44.70270585362643 kvar=10.3459434448582 Phases=3 yearly=com_kw_17650_pu

New Load.load_p2ulv1274 conn=wye bus1=p2ulv1274.1.2.3 kV=0.48 Vminpu=0.8 Vmaxpu=1.2 model=1 kW=107.65965933532149 kvar=19.461376435966404 Phases=3 yearly=res_kw_410_pu

New Load.load_p2ulv1426 conn=wye bus1=p2ulv1426.1.2.3 kV=0.48 Vminpu=0.8 Vmaxpu=1.2 model=1 kW=66.85014812941762 kvar=13.314067304587313 Phases=3 yearly=com_kw_35444_pu

New Load.load_p2ulv1472 conn=wye bus1=p2ulv1472.1.2.3 kV=0.48 Vminpu=0.8 Vmaxpu=1.2 model=1 kW=41.84293977120701 kvar=16.440168400073578 Phases=3 yearly=res_kw_10897_pu

New Load.load_p2ulv1473 conn=wye bus1=p2ulv1473.1.2.3 kV=0.48 Vminpu=0.8 Vmaxpu=1.2 model=1 kW=290.4801373313237 kvar=79.21913235765372 Phases=3 yearly=com_kw_20999_pu

New Load.load_p2ulv1474_1 conn=wye bus1=p2ulv1474.1 kV=0.12 Vminpu=0.8 Vmaxpu=1.2 model=1 kW=6.463250925368341 kvar=1.0667728413547097 Phases=1 yearly=com_kw_31621_pu

New Load.load_p2ulv1474_2 conn=wye bus1=p2ulv1474.2 kV=0.12 Vminpu=0.8 Vmaxpu=1.2 model=1 kW=6.463250925368341 kvar=1.0667728413547097 Phases=1 yearly=com_kw_31621_pu

New Load.load_p2ulv2396_1 conn=wye bus1=p2ulv2396.1 kV=0.12 Vminpu=0.8 Vmaxpu=1.2 model=1 kW=3.654506065365723 kvar=1.290440694534455 Phases=1 yearly=res_kw_12541_pu

New Load.load_p2ulv2396_2 conn=wye bus1=p2ulv2396.2 kV=0.12 Vminpu=0.8 Vmaxpu=1.2 model=1 kW=3.654506065365723 kvar=1.290440694534455 Phases=1 yearly=res_kw_12541_pu

New Load.load_p2ulv2481 conn=wye bus1=p2ulv2481.1.2.3 kV=0.48 Vminpu=0.8 Vmaxpu=1.2 model=1 kW=253.4436144732632 kvar=41.94555350423874 Phases=3 yearly=res_kw_2124_pu

New Load.load_p2ulv2526 conn=wye bus1=p2ulv2526.1.2.3 kV=0.48 Vminpu=0.8 Vmaxpu=1.2 model=1 kW=280.5329644710568 kvar=81.83751311026934 Phases=3 yearly=res_kw_3457_pu

New Load.load_p2ulv2557 conn=wye bus1=p2ulv2557.1.2.3 kV=0.48 Vminpu=0.8 Vmaxpu=1.2 model=1 kW=34.41731004259801 kvar=7.546091824742515 Phases=3 yearly=com_kw_16878_pu

New Load.load_p2ulv3475 conn=wye bus1=p2ulv3475.1.2.3 kV=0.48 Vminpu=0.8 Vmaxpu=1.2 model=1 kW=42.88176906330447 kvar=11.666448899750488 Phases=3 yearly=com_kw_17689_pu

New Load.load_p2ulv3521_1 conn=wye bus1=p2ulv3521.1 kV=0.12 Vminpu=0.8 Vmaxpu=1.2 model=1 kW=3.0772156037646567 kvar=0.01984596164170695 Phases=1 yearly=com_kw_41589_pu

New Load.load_p2ulv3521_2 conn=wye bus1=p2ulv3521.2 kV=0.12 Vminpu=0.8 Vmaxpu=1.2 model=1 kW=3.0772156037646567 kvar=0.01984596164170695 Phases=1 yearly=com_kw_41589_pu

New Load.load_p2ulv3582_1 conn=wye bus1=p2ulv3582.1 kV=0.12 Vminpu=0.8 Vmaxpu=1.2 model=1 kW=2.032692214158918 kvar=0.5109700530012344 Phases=1 yearly=com_kw_2581_pu

New Load.load_p2ulv3582_2 conn=wye bus1=p2ulv3582.2 kV=0.12 Vminpu=0.8 Vmaxpu=1.2 model=1 kW=2.032692214158918 kvar=0.5109700530012344 Phases=1 yearly=com_kw_2581_pu

New Load.load_p2umv27 conn=wye bus1=p2umv27.1.2.3 kV=12.47 Vminpu=0.8 Vmaxpu=1.2 model=1 kW=1191.6272708379015 kvar=330.44010508256326 Phases=3 yearly=com_kw_1573_pu

New Load.load_p2ulv3660_1 conn=wye bus1=p2ulv3660.1 kV=0.12 Vminpu=0.8 Vmaxpu=1.2 model=1 kW=2.9149869461814677 kvar=0.5767582022429075 Phases=1 yearly=com_kw_32249_pu

New Load.load_p2ulv3660_2 conn=wye bus1=p2ulv3660.2 kV=0.12 Vminpu=0.8 Vmaxpu=1.2 model=1 kW=2.9149869461814677 kvar=0.5767582022429075 Phases=1 yearly=com_kw_32249_pu

New Load.load_p2umv33 conn=wye bus1=p2umv33.1.2.3 kV=12.47 Vminpu=0.8 Vmaxpu=1.2 model=1 kW=1105.5995913878805 kvar=290.31784022085054 Phases=3 yearly=com_kw_17254_pu

New Load.load_p2ulv4608_1 conn=wye bus1=p2ulv4608.1 kV=0.12 Vminpu=0.8 Vmaxpu=1.2 model=1 kW=3.2570744264864886 kvar=0.02246974709606756 Phases=1 yearly=com_kw_29275_pu

New Load.load_p2ulv4608_2 conn=wye bus1=p2ulv4608.2 kV=0.12 Vminpu=0.8 Vmaxpu=1.2 model=1 kW=3.2570744264864886 kvar=0.02246974709606756 Phases=1 yearly=com_kw_29275_pu

...